docs/03-materialy-zrodlowe/tamu-case2746wop/case2746wop_TAMU_Updated.RAW
 0,    100.00, 33, 0, 0, 60.00       / March 19, 2022 11:46:48; Simulator Version 22; BuildDate 2022_3_16


    1,'1           ', 220.0000,1,   1,   1,   1,1.08076918,  -5.842457, 1.10000, 0.90000, 1.10000, 0.90000
    2,'2           ', 220.0000,1,   1,   1,   1,1.08280885,  -2.404548, 1.10000, 0.90000, 1.10000, 0.90000
    3,'3           ', 220.0000,1,   1,   1,   1,1.06336641, -23.485660, 1.10000, 0.90000, 1.10000, 0.90000
    4,'4           ', 220.0000,1,   1,   1,   1,1.07076836,  -8.914047, 1.10000, 0.90000, 1.10000, 0.90000
    5,'5           ', 220.0000,1,   1,   1,   1,1.07078099,  -8.920645, 1.10000, 0.90000, 1.10000, 0.90000
    6,'6           ', 220.0000,1,   1,   1,   1,1.05767417, -17.448493, 1.10000, 0.90000, 1.10000, 0.90000
    7,'7           ', 220.0000,1,   1,   1,   1,1.05775130, -17.445232, 1.10000, 0.90000, 1.10000, 0.90000
    8,'8           ', 400.0000,1,   1,   1,   1,1.01858163, -15.181525, 1.10000, 0.90000, 1.10000, 0.90000
    9,'9           ', 400.0000,1,   1,   1,   1,1.01861668, -15.184226, 1.10000, 0.90000, 1.10000, 0.90000
   10,'10          ', 220.0000,1,   1,   1,   1,1.05081892, -17.414426, 1.10000, 0.90000, 1.10000, 0.90000
   11,'11          ', 220.0000,1,   1,   1,   1,1.05074799, -17.428382, 1.10000, 0.90000, 1.10000, 0.90000
   12,'12          ', 220.0000,1,   1,   1,   1,1.05078733, -17.420836, 1.10000, 0.90000, 1.10000, 0.90000
   13,'13          ', 400.0000,1,   1,   1,   1,1.00954509, -13.383999, 1.10000, 0.90000, 1.10000, 0.90000
   14,'14          ', 400.0000,1,   1,   1,   1,1.00964570, -13.378400, 1.10000, 0.90000, 1.10000, 0.90000
   15,'15          ', 400.0000,1,   1,   1,   1,1.02813280, -16.549108, 1.10000, 0.90000, 1.10000, 0.90000
   16,'16          ', 400.0000,1,   1,   1,   1,1.02813280, -16.549108, 1.10000, 0.90000, 1.10000, 0.90000
   17,'Ostroleka   ', 220.0000,2,   1,   1,   1,1.09088004, -19.427206, 1.10000, 0.90000, 1.10000, 0.90000
   18,'Ostroleka   ', 220.0000,2,   1,   1,   1,1.09090996, -19.428658, 1.10000, 0.90000, 1.10000, 0.90000
   19,'19          ', 220.0000,1,   1,   1,   1,1.07419145,  -8.094315, 1.10000, 0.90000, 1.10000, 0.90000
   20,'20          ', 220.0000,1,   1,   1,   1,1.07418776,  -8.090385, 1.10000, 0.90000, 1.10000, 0.90000
   21,'21          ', 220.0000,1,   1,   1,   1,1.06961727, -19.167258, 1.10000, 0.90000, 1.10000, 0.90000
   22,'22          ', 220.0000,1,   1,   1,   1,1.06961727, -19.167258, 1.10000, 0.90000, 1.10000, 0.90000
   23,'23          ', 220.0000,1,   1,   1,   1,1.05139112, -17.347989, 1.10000, 0.90000, 1.10000, 0.90000
   24,'24          ', 220.0000,1,   1,   1,   1,1.07686138,  -5.979081, 1.10000, 0.90000, 1.10000, 0.90000
   25,'25          ', 400.0000,1,   1,   1,   1,1.01065147, -18.092130, 1.10000, 0.90000, 1.10000, 0.90000
   26,'Belchatow   ', 220.0000,2,   1,   1,   1,1.09090996,  -5.652584, 1.10000, 0.90000, 1.10000, 0.90000
   27,'Belchatow   ', 220.0000,2,   1,   1,   1,1.09090996,  -2.180448, 1.10000, 0.90000, 1.10000, 0.90000
   28,'Belchatow   ', 400.0000,3,   1,   1,   1,1.03250003,  -4.410000, 1.10000, 0.90000, 1.10000, 0.90000
   29,'Belchatow   ', 400.0000,2,   1,   1,   1,1.03248894,  -4.400697, 1.10000, 0.90000, 1.10000, 0.90000
   30,'30          ', 220.0000,1,   1,   1,   1,1.05676866, -18.616589, 1.10000, 0.90000, 1.10000, 0.90000
   31,'31          ', 400.0000,1,   1,   1,   1,1.03315508,  -5.456010, 1.10000, 0.90000, 1.10000, 0.90000
   32,'32          ', 220.0000,1,   1,   1,   1,1.04864538, -17.569260, 1.10000, 0.90000, 1.10000, 0.90000
   33,'33          ', 220.0000,1,   1,   1,   1,1.07686555,  -5.978155, 1.10000, 0.90000, 1.10000, 0.90000
   34,'34          ', 220.0000,1,   1,   1,   1,1.07159674, -11.888018, 1.10000, 0.90000, 1.10000, 0.90000
   35,'35          ', 220.0000,1,   1,   2,   1,1.09091949, -15.145922, 1.10000, 0.90000, 1.10000, 0.90000
   36,'36          ', 220.0000,1,   1,   2,   1,1.08155572, -15.550118, 1.10000, 0.90000, 1.10000, 0.90000
   37,'37          ', 220.0000,1,   1,   2,   1,1.08987069, -14.569639, 1.10000, 0.90000, 1.10000, 0.90000
   38,'38          ', 220.0000,1,   1,   2,   1,1.08984935, -14.572499, 1.10000, 0.90000, 1.10000, 0.90000
   39,'39          ', 220.0000,1,   1,   2,   1,1.08554697, -16.204890, 1.10000, 0.90000, 1.10000, 0.90000
   40,'40          ', 220.0000,1,   1,   2,   1,1.10291207, -13.811252, 1.10000, 0.90000, 1.10000, 0.90000
   41,'41          ', 220.0000,1,   1,   2,   1,1.10282648, -13.814313, 1.10000, 0.90000, 1.10000, 0.90000
   42,'42          ', 400.0000,1,   1,   2,   1,1.02156389, -13.876135, 1.10000, 0.90000, 1.10000, 0.90000
   43,'Kozienice   ', 220.0000,2,   1,   2,   1,1.09099495, -13.754589, 1.10000, 0.90000, 1.10000, 0.90000
   44,'Kozienice   ', 220.0000,2,   1,   2,   1,1.09096003, -13.738987, 1.10000, 0.90000, 1.10000, 0.90000
   45,'Kozienice   ', 400.0000,2,   1,   2,   1,1.03250003, -13.607627, 1.10000, 0.90000, 1.10000, 0.90000
   46,'46          ', 400.0000,1,   1,   2,   1,1.03245389, -13.609594, 1.10000, 0.90000, 1.10000, 0.90000
   47,'47          ', 220.0000,1,   1,   2,   1,1.10164404, -14.248797, 1.10000, 0.90000, 1.10000, 0.90000
   48,'48          ', 400.0000,1,   1,   2,   1,1.02613819, -17.596289, 1.10000, 0.90000, 1.10000, 0.90000
   49,'49          ', 400.0000,1,   1,   2,   1,1.02611566, -17.601981, 1.10000, 0.90000, 1.10000, 0.90000
   50,'50          ', 400.0000,1,   1,   2,   1,1.02801216, -14.109464, 1.10000, 0.90000, 1.10000, 0.90000
   51,'51          ', 220.0000,1,   1,   2,   1,1.08617246, -15.320060, 1.10000, 0.90000, 1.10000, 0.90000
   52,'52          ', 220.0000,1,   1,   2,   1,1.08617806, -15.316911, 1.10000, 0.90000, 1.10000, 0.90000
   53,'53          ', 400.0000,1,   1,   2,   1,1.03498495, -14.375409, 1.10000, 0.90000, 1.10000, 0.90000
   54,'54          ', 400.0000,1,   1,   2,   1,1.03500545, -14.375702, 1.10000, 0.90000, 1.10000, 0.90000
   55,'Polaniec    ', 220.0000,2,   1,   2,   1,1.09173155, -13.677402, 1.10000, 0.90000, 1.10000, 0.90000
   56,'Polaniec    ', 220.0000,2,   1,   2,   1,1.09171176, -13.677351, 1.10000, 0.90000, 1.10000, 0.90000
   57,'Polaniec    ', 400.0000,2,   1,   2,   1,1.03706360, -14.001355, 1.10000, 0.90000, 1.10000, 0.90000
   58,'Polaniec    ', 400.0000,2,   1,   2,   1,1.03705049, -14.006141, 1.10000, 0.90000, 1.10000, 0.90000
   59,'Pulawy      ', 220.0000,2,   1,   2,   1,1.08440101, -14.798720, 1.10000, 0.90000, 1.10000, 0.90000
   60,'60          ', 220.0000,1,   1,   2,   1,1.08447456, -14.794690, 1.10000, 0.90000, 1.10000, 0.90000
   61,'61          ', 220.0000,1,   1,   2,   1,1.09776962, -14.381889, 1.10000, 0.90000, 1.10000, 0.90000
   62,'62          ', 220.0000,1,   1,   2,   1,1.09022772, -14.564087, 1.10000, 0.90000, 1.10000, 0.90000
   63,'63          ', 220.0000,1,   1,   2,   1,1.09020078, -14.565915, 1.10000, 0.90000, 1.10000, 0.90000
   64,'64          ', 400.0000,1,   1,   2,   1,1.03674853, -15.240285, 1.10000, 0.90000, 1.10000, 0.90000
   65,'65          ', 400.0000,1,   1,   2,   1,1.03671134, -15.251239, 1.10000, 0.90000, 1.10000, 0.90000
   66,'66          ', 220.0000,1,   1,   2,   1,1.08888745, -15.334540, 1.10000, 0.90000, 1.10000, 0.90000
   67,'67          ', 220.0000,1,   1,   2,   1,1.08989203, -15.177804, 1.10000, 0.90000, 1.10000, 0.90000
   68,'68          ', 220.0000,1,   1,   2,   1,1.08628273, -14.635791, 1.10000, 0.90000, 1.10000, 0.90000
   69,'69          ', 220.0000,1,   1,   3,   1,1.08461523,  -9.408718, 1.10000, 0.90000, 1.10000, 0.90000
   70,'70          ', 220.0000,1,   1,   3,   1,1.09518683, -14.823341, 1.10000, 0.90000, 1.10000, 0.90000
   71,'71          ', 220.0000,1,   1,   3,   1,1.09505606, -14.831197, 1.10000, 0.90000, 1.10000, 0.90000
   72,'72          ', 220.0000,1,   1,   3,   1,1.08757567, -13.585092, 1.10000, 0.90000, 1.10000, 0.90000
   73,'73          ', 220.0000,1,   1,   3,   1,1.08760905, -13.569385, 1.10000, 0.90000, 1.10000, 0.90000
   74,'74          ', 220.0000,1,   1,   3,   1,1.08785403, -10.943293, 1.10000, 0.90000, 1.10000, 0.90000
   75,'75          ', 220.0000,1,   1,   3,   1,1.08783615, -10.948461, 1.10000, 0.90000, 1.10000, 0.90000
   76,'76          ', 220.0000,1,   1,   3,   1,1.08571374, -18.030128, 1.10000, 0.90000, 1.10000, 0.90000
   77,'77          ', 220.0000,1,   1,   3,   1,1.08568478, -18.042409, 1.10000, 0.90000, 1.10000, 0.90000
   78,'Jaworzno    ', 220.0000,2,   1,   3,   1,1.09090996, -12.507303, 1.10000, 0.90000, 1.10000, 0.90000
   79,'Jaworzno    ', 220.0000,2,   1,   3,   1,1.09034002, -13.073291, 1.10000, 0.90000, 1.10000, 0.90000
   80,'80          ', 220.0000,1,   1,   3,   1,1.08176196, -12.842772, 1.10000, 0.90000, 1.10000, 0.90000
   81,'81          ', 220.0000,1,   1,   3,   1,1.08179092, -12.846357, 1.10000, 0.90000, 1.10000, 0.90000
   82,'Opole       ', 400.0000,2,   1,   3,   1,1.03118646,  -6.635393, 1.10000, 0.90000, 1.10000, 0.90000
   83,'83          ', 220.0000,1,   1,   3,   1,1.08841872, -10.552870, 1.10000, 0.90000, 1.10000, 0.90000
   84,'84          ', 220.0000,1,   1,   3,   1,1.08851314, -11.628320, 1.10000, 0.90000, 1.10000, 0.90000
   85,'85          ', 220.0000,1,   1,   3,   1,1.08850873, -11.638192, 1.10000, 0.90000, 1.10000, 0.90000
   86,'86          ', 220.0000,1,   1,   3,   1,1.08501637,  -9.488956, 1.10000, 0.90000, 1.10000, 0.90000
   87,'87          ', 220.0000,1,   1,   3,   1,1.08500588,  -9.494274, 1.10000, 0.90000, 1.10000, 0.90000
   88,'88          ', 220.0000,1,   1,   3,   1,1.08506489, -11.606791, 1.10000, 0.90000, 1.10000, 0.90000
   89,'89          ', 220.0000,1,   1,   3,   1,1.08505726, -11.613916, 1.10000, 0.90000, 1.10000, 0.90000
   90,'90          ', 220.0000,1,   1,   3,   1,1.08714437,  -9.037134, 1.10000, 0.90000, 1.10000, 0.90000
   91,'91          ', 220.0000,1,   1,   3,   1,1.08714759,  -9.032724, 1.10000, 0.90000, 1.10000, 0.90000
   92,'92          ', 400.0000,1,   1,   3,   1,1.03528523,  -6.763576, 1.10000, 0.90000, 1.10000, 0.90000
   93,'93          ', 400.0000,1,   1,   3,   1,1.03528631,  -6.763866, 1.10000, 0.90000, 1.10000, 0.90000
   94,'94          ', 220.0000,1,   1,   3,   1,1.08943439, -10.945208, 1.10000, 0.90000, 1.10000, 0.90000
   95,'95          ', 220.0000,1,   1,   3,   1,1.08943510, -10.945132, 1.10000, 0.90000, 1.10000, 0.90000
   96,'96          ', 220.0000,1,   1,   3,   1,1.08676457, -10.691767, 1.10000, 0.90000, 1.10000, 0.90000
   97,'97          ', 220.0000,1,   1,   3,   1,1.08677971, -10.691105, 1.10000, 0.90000, 1.10000, 0.90000
   98,'98          ', 220.0000,1,   1,   3,   1,1.08789122, -12.768215, 1.10000, 0.90000, 1.10000, 0.90000
   99,'99          ', 220.0000,1,   1,   3,   1,1.08787978, -12.764002, 1.10000, 0.90000, 1.10000, 0.90000
  100,'100         ', 220.0000,1,   1,   3,   1,1.09522617, -14.805550, 1.10000, 0.90000, 1.10000, 0.90000
  101,'101         ', 220.0000,1,   1,   3,   1,1.09521627, -14.807341, 1.10000, 0.90000, 1.10000, 0.90000
  102,'102         ', 220.0000,1,   1,   3,   1,1.08524609, -17.240156, 1.10000, 0.90000, 1.10000, 0.90000
  103,'103         ', 220.0000,1,   1,   3,   1,1.08520138, -17.227776, 1.10000, 0.90000, 1.10000, 0.90000
  104,'laziska     ', 220.0000,2,   1,   3,   1,1.09090996, -10.967504, 1.10000, 0.90000, 1.10000, 0.90000
  105,'laziska     ', 220.0000,1,   1,   3,   1,1.09088480, -10.980228, 1.10000, 0.90000, 1.10000, 0.90000
  106,'lagisza     ', 220.0000,2,   1,   3,   1,1.09090996, -10.829678, 1.10000, 0.90000, 1.10000, 0.90000
  107,'lagisza     ', 220.0000,2,   1,   3,   1,1.09090996, -10.832723, 1.10000, 0.90000, 1.10000, 0.90000
  108,'108         ', 220.0000,1,   1,   3,   1,1.08640432, -12.266226, 1.10000, 0.90000, 1.10000, 0.90000
  109,'109         ', 220.0000,1,   1,   3,   1,1.08645034, -12.279850, 1.10000, 0.90000, 1.10000, 0.90000
  110,'110         ', 220.0000,1,   1,   3,   1,1.08835125, -13.962496, 1.10000, 0.90000, 1.10000, 0.90000
  111,'111         ', 220.0000,1,   1,   3,   1,1.07704234, -11.873504, 1.10000, 0.90000, 1.10000, 0.90000
  112,'112         ', 220.0000,1,   1,   3,   1,1.07707942, -11.878222, 1.10000, 0.90000, 1.10000, 0.90000
  113,'113         ', 220.0000,1,   1,   3,   1,1.08342326, -13.103271, 1.10000, 0.90000, 1.10000, 0.90000
  114,'114         ', 220.0000,1,   1,   3,   1,1.08347750, -13.098719, 1.10000, 0.90000, 1.10000, 0.90000
  115,'115         ', 400.0000,1,   1,   3,   1,1.02814090,  -9.387080, 1.10000, 0.90000, 1.10000, 0.90000
  116,'Siersza     ', 220.0000,1,   1,   3,   1,1.09046102, -12.861549, 1.10000, 0.90000, 1.10000, 0.90000
  117,'Siersza     ', 220.0000,2,   1,   3,   1,1.09045994, -12.852025, 1.10000, 0.90000, 1.10000, 0.90000
  118,'Skawina     ', 220.0000,2,   1,   3,   1,1.09419978, -13.553346, 1.10000, 0.90000, 1.10000, 0.90000
  119,'119         ', 220.0000,1,   1,   3,   1,1.09419441, -13.558815, 1.10000, 0.90000, 1.10000, 0.90000
  120,'120         ', 400.0000,1,   1,   3,   1,1.03869724, -13.959498, 1.10000, 0.90000, 1.10000, 0.90000
  121,'121         ', 400.0000,1,   1,   3,   1,1.03872478, -13.952174, 1.10000, 0.90000, 1.10000, 0.90000
  122,'122         ', 400.0000,1,   1,   3,   1,1.03197110,  -9.554154, 1.10000, 0.90000, 1.10000, 0.90000
  123,'123         ', 400.0000,1,   1,   3,   1,1.03200805,  -9.552589, 1.10000, 0.90000, 1.10000, 0.90000
  124,'124         ', 220.0000,1,   1,   3,   1,1.08859074, -13.993625, 1.10000, 0.90000, 1.10000, 0.90000
  125,'Rybnik      ', 220.0000,2,   1,   3,   1,1.09090996,  -9.907481, 1.10000, 0.90000, 1.10000, 0.90000
  126,'Rybnik      ', 220.0000,2,   1,   3,   1,1.09081995,  -9.915583, 1.10000, 0.90000, 1.10000, 0.90000
  127,'Rybnik      ', 400.0000,2,   1,   3,   1,1.02868998,  -8.281832, 1.10000, 0.90000, 1.10000, 0.90000
  128,'128         ', 400.0000,1,   1,   3,   1,1.02867270,  -8.291893, 1.10000, 0.90000, 1.10000, 0.90000
  129,'129         ', 220.0000,1,   1,   3,   1,1.08470464,  -9.599830, 1.10000, 0.90000, 1.10000, 0.90000
  130,'130         ', 220.0000,1,   1,   3,   1,1.08471751,  -9.598733, 1.10000, 0.90000, 1.10000, 0.90000
  131,'131         ', 220.0000,1,   1,   3,   1,1.08618164,  -9.414238, 1.10000, 0.90000, 1.10000, 0.90000
  132,'Porabka-Zar ', 220.0000,1,   1,   3,   1,1.08706641, -18.879840, 1.10000, 0.90000, 1.10000, 0.90000
  133,'Porabka-Zar ', 220.0000,1,   1,   3,   1,1.08495557, -18.864366, 1.10000, 0.90000, 1.10000, 0.90000
  134,'Adamow      ', 220.0000,2,   1,   4,   1,1.08804786, -13.818739, 1.10000, 0.90000, 1.10000, 0.90000
  135,'Adamow      ', 220.0000,1,   1,   4,   1,1.08792257, -13.827810, 1.10000, 0.90000, 1.10000, 0.90000
  136,'136         ', 220.0000,1,   1,   4,   1,1.07972765, -16.784353, 1.10000, 0.90000, 1.10000, 0.90000
  137,'137         ', 220.0000,1,   1,   4,   1,1.08415961, -16.300315, 1.10000, 0.90000, 1.10000, 0.90000
  138,'138         ', 400.0000,1,   1,   4,   1,1.04074621, -13.831699, 1.10000, 0.90000, 1.10000, 0.90000
  139,'139         ', 400.0000,1,   1,   4,   1,1.04075742, -13.827565, 1.10000, 0.90000, 1.10000, 0.90000
  140,'140         ', 220.0000,1,   1,   4,   1,1.10237932, -23.253230, 1.10000, 0.90000, 1.10000, 0.90000
  141,'141         ', 220.0000,1,   1,   4,   1,1.10112834, -25.851110, 1.10000, 0.90000, 1.10000, 0.90000
  142,'142         ', 220.0000,1,   1,   4,   1,1.10112834, -25.851110, 1.10000, 0.90000, 1.10000, 0.90000
  143,'143         ', 220.0000,1,   1,   4,   1,1.09598494, -24.333739, 1.10000, 0.90000, 1.10000, 0.90000
  144,'144         ', 220.0000,1,   1,   4,   1,1.08747041, -15.430907, 1.10000, 0.90000, 1.10000, 0.90000
  145,'145         ', 220.0000,1,   1,   4,   1,1.08747041, -15.430907, 1.10000, 0.90000, 1.10000, 0.90000
  146,'Konin       ', 220.0000,2,   1,   4,   1,1.09011996, -17.412734, 1.10000, 0.90000, 1.10000, 0.90000
  147,'Konin       ', 220.0000,1,   1,   4,   1,1.09015787, -17.422313, 1.10000, 0.90000, 1.10000, 0.90000
  148,'Dolna Odra  ', 220.0000,2,   1,   4,   1,1.09889662, -24.954074, 1.10000, 0.90000, 1.10000, 0.90000
  149,'149         ', 220.0000,1,   1,   4,   1,1.09885550, -24.968235, 1.10000, 0.90000, 1.10000, 0.90000
  150,'Dolna Odra  ', 400.0000,2,   1,   4,   1,1.03245997, -26.621559, 1.10000, 0.90000, 1.10000, 0.90000
  151,'Dolna Odra  ', 400.0000,2,   1,   4,   1,1.03243721, -26.627568, 1.10000, 0.90000, 1.10000, 0.90000
  152,'152         ', 220.0000,1,   1,   4,   1,1.08934820, -23.300226, 1.10000, 0.90000, 1.10000, 0.90000
  153,'153         ', 220.0000,1,   1,   4,   1,1.08687568, -22.345544, 1.10000, 0.90000, 1.10000, 0.90000
  154,'154         ', 220.0000,1,   1,   4,   1,1.08691537, -22.339220, 1.10000, 0.90000, 1.10000, 0.90000
  155,'Turow       ', 220.0000,2,   1,   4,   1,1.09090996, -14.600701, 1.10000, 0.90000, 1.10000, 0.90000
  156,'Turow       ', 220.0000,2,   1,   4,   1,1.09090996, -14.674661, 1.10000, 0.90000, 1.10000, 0.90000
  157,'157         ', 220.0000,1,   1,   4,   1,1.09090996, -14.600701, 1.10000, 0.90000, 1.10000, 0.90000
  158,'158         ', 400.0000,1,   1,   4,   1,1.03399920, -13.607070, 1.10000, 0.90000, 1.10000, 0.90000
  159,'Turow       ', 400.0000,2,   1,   4,   1,1.03397930, -13.604974, 1.10000, 0.90000, 1.10000, 0.90000
  160,'160         ', 220.0000,1,   1,   4,   1,1.09997487, -25.902254, 1.10000, 0.90000, 1.10000, 0.90000
  161,'161         ', 220.0000,1,   1,   4,   1,1.09997487, -25.902254, 1.10000, 0.90000, 1.10000, 0.90000
  162,'162         ', 400.0000,1,   1,   4,   1,1.04234648, -12.971703, 1.10000, 0.90000, 1.10000, 0.90000
  163,'163         ', 400.0000,1,   1,   4,   1,1.04061306, -12.029285, 1.10000, 0.90000, 1.10000, 0.90000
  164,'164         ', 400.0000,1,   1,   4,   1,1.04062700, -12.035874, 1.10000, 0.90000, 1.10000, 0.90000
  165,'Patnow      ', 220.0000,2,   1,   4,   1,1.09083998, -17.668738, 1.10000, 0.90000, 1.10000, 0.90000
  166,'Patnow      ', 220.0000,2,   1,   4,   1,1.09089017, -17.686146, 1.10000, 0.90000, 1.10000, 0.90000
  167,'167         ', 220.0000,1,   1,   4,   1,1.09081137, -17.670032, 1.10000, 0.90000, 1.10000, 0.90000
  168,'168         ', 220.0000,1,   1,   4,   1,1.11048412, -28.866937, 1.10000, 0.90000, 1.10000, 0.90000
  169,'169         ', 220.0000,1,   1,   4,   1,1.10409617, -25.946152, 1.10000, 0.90000, 1.10000, 0.90000
  170,'170         ', 220.0000,1,   1,   4,   1,1.10976934, -24.260842, 1.10000, 0.90000, 1.10000, 0.90000
  171,'171         ', 220.0000,1,   1,   4,   1,1.10965765, -24.259871, 1.10000, 0.90000, 1.10000, 0.90000
  172,'172         ', 400.0000,1,   1,   4,   1,0.96698380, -25.379765, 1.10000, 0.90000, 1.10000, 0.90000
  173,'173         ', 400.0000,1,   1,   4,   1,0.96698380, -25.379765, 1.10000, 0.90000, 1.10000, 0.90000
  174,'174         ', 220.0000,1,   1,   4,   1,1.07081461, -21.586290, 1.10000, 0.90000, 1.10000, 0.90000
  175,'175         ', 220.0000,1,   1,   4,   1,1.07082355, -21.584304, 1.10000, 0.90000, 1.10000, 0.90000
  176,'176         ', 220.0000,1,   1,   4,   1,1.10807300, -24.495140, 1.10000, 0.90000, 1.10000, 0.90000
  177,'177         ', 220.0000,1,   1,   4,   1,1.08372653, -16.213302, 1.10000, 0.90000, 1.10000, 0.90000
  178,'178         ', 220.0000,1,   1,   4,   1,1.08374727, -16.208129, 1.10000, 0.90000, 1.10000, 0.90000
  179,'179         ', 220.0000,1,   1,   4,   1,1.08546615, -15.155744, 1.10000, 0.90000, 1.10000, 0.90000
  180,'180         ', 220.0000,1,   1,   4,   1,1.08546615, -15.155744, 1.10000, 0.90000, 1.10000, 0.90000
  181,'181         ', 220.0000,1,   1,   4,   1,1.06950247, -22.404760, 1.10000, 0.90000, 1.10000, 0.90000
  182,'182         ', 220.0000,1,   1,   5,   1,1.05420506, -25.406933, 1.10000, 0.90000, 1.10000, 0.90000
  183,'183         ', 220.0000,1,   1,   5,   1,1.12050772, -32.492491, 1.10000, 0.90000, 1.10000, 0.90000
  184,'184         ', 400.0000,1,   1,   5,   1,1.03936875, -32.119248, 1.10000, 0.90000, 1.10000, 0.90000
  185,'185         ', 400.0000,1,   1,   5,   1,1.03937066, -32.112298, 1.10000, 0.90000, 1.10000, 0.90000
  186,'186         ', 400.0000,1,   1,   5,   1,1.02743328, -34.405568, 1.10000, 0.90000, 1.10000, 0.90000
  187,'187         ', 400.0000,1,   1,   5,   1,1.02746654, -34.413147, 1.10000, 0.90000, 1.10000, 0.90000
  188,'188         ', 220.0000,1,   1,   5,   1,1.08228636, -32.645111, 1.10000, 0.90000, 1.10000, 0.90000
  189,'189         ', 220.0000,1,   1,   5,   1,1.08234847, -32.648502, 1.10000, 0.90000, 1.10000, 0.90000
  190,'190         ', 220.0000,1,   1,   5,   1,1.05476213, -27.562778, 1.10000, 0.90000, 1.10000, 0.90000
  191,'191         ', 220.0000,1,   1,   5,   1,1.05480635, -27.560478, 1.10000, 0.90000, 1.10000, 0.90000
  192,'192         ', 400.0000,1,   1,   5,   1,1.00333905, -27.070970, 1.10000, 0.90000, 1.10000, 0.90000
  193,'193         ', 220.0000,1,   1,   5,   1,1.06083083, -25.002249, 1.10000, 0.90000, 1.10000, 0.90000
  194,'194         ', 220.0000,1,   1,   5,   1,1.06082296, -24.999445, 1.10000, 0.90000, 1.10000, 0.90000
  195,'195         ', 400.0000,1,   1,   5,   1,1.02456856, -33.559691, 1.10000, 0.90000, 1.10000, 0.90000
  196,'196         ', 400.0000,1,   1,   5,   1,1.02454066, -33.557392, 1.10000, 0.90000, 1.10000, 0.90000
  197,'197         ', 220.0000,1,   1,   5,   1,1.06373453, -27.447043, 1.10000, 0.90000, 1.10000, 0.90000
  198,'198         ', 220.0000,1,   1,   5,   1,1.06369770, -27.440068, 1.10000, 0.90000, 1.10000, 0.90000
  199,'199         ', 400.0000,1,   1,   5,   1,1.03967094, -33.648012, 1.10000, 0.90000, 1.10000, 0.90000
  200,'200         ', 400.0000,1,   1,   5,   1,1.03969431, -33.635229, 1.10000, 0.90000, 1.10000, 0.90000
...
0 / END OF BUS DATA, BEGIN LOAD DATA
   17,'1 ',1,   1,   1,     2.302,    31.000,     0.000,     0.000,     0.000,     0.000,   1,1, 0
   18,'1 ',1,   1,   1,     9.700,    40.000,     0.000,     0.000,     0.000,     0.000,   1,1, 0
   26,'1 ',1,   1,   1,    28.565,    42.054,     0.000,     0.000,     0.000,     0.000,   1,1, 0
   27,'1 ',1,   1,   1,    85.005,   122.060,     0.000,     0.000,     0.000,     0.000,   1,1, 0
   28,'1 ',1,   1,   1,    44.783,    80.000,     0.000,     0.000,     0.000,     0.000,   1,1, 0
   29,'1 ',1,   1,   1,    60.097,    90.000,     0.000,     0.000,     0.000,     0.000,   1,1, 0
   43,'1 ',1,   1,   1,    12.000,     0.000,     0.000,     0.000,     0.000,     0.000,   1,1, 0
   44,'1 ',1,   1,   1,    24.000,     0.000,     0.000,     0.000,     0.000,     0.000,   1,1, 0
   45,'1 ',1,   1,   1,    20.000,     0.000,     0.000,     0.000,     0.000,     0.000,   1,1, 0
   55,'1 ',1,   1,   1,    12.000,     0.000,     0.000,     0.000,     0.000,     0.000,   1,1, 0
   56,'1 ',1,   1,   1,    12.000,     0.000,     0.000,     0.000,     0.000,     0.000,   1,1, 0
   57,'1 ',1,   1,   1,    12.000,     0.000,     0.000,     0.000,     0.000,     0.000,   1,1, 0
   58,'1 ',1,   1,   1,    12.000,     0.000,     0.000,     0.000,     0.000,     0.000,   1,1, 0
   59,'1 ',1,   1,   1,   170.733,    62.000,     0.000,     0.000,     0.000,     0.000,   1,1, 0
   70,'1 ',1,   1,   1,     6.800,     0.000,     0.000,     0.000,     0.000,     0.000,   1,1, 0
   71,'1 ',1,   1,   1,    11.331,     2.430,     0.000,     0.000,     0.000,     0.000,   1,1, 0
   78,'1 ',1,   1,   1,    26.999,    69.999,     0.000,     0.000,     0.000,     0.000,   1,1, 0
   79,'1 ',1,   1,   1,     8.999,    20.999,     0.000,     0.000,     0.000,     0.000,   1,1, 0
   80,'1 ',1,   1,   1,    10.085,     1.376,     0.000,     0.000,     0.000,     0.000,   1,1, 0
   82,'1 ',1,   1,   1,    34.999,   107.999,     0.000,     0.000,     0.000,     0.000,   1,1, 0
   86,'1 ',1,   1,   1,    44.148,    10.561,     0.000,     0.000,     0.000,     0.000,   1,1, 0
   98,'1 ',1,   1,   1,    17.111,     6.317,     0.000,     0.000,     0.000,     0.000,   1,1, 0
  104,'1 ',1,   1,   1,    13.999,    39.999,     0.000,     0.000,     0.000,     0.000,   1,1, 0
  106,'1 ',1,   1,   1,     6.999,    17.999,     0.000,     0.000,     0.000,     0.000,   1,1, 0
  107,'1 ',1,   1,   1,     7.999,    14.999,     0.000,     0.000,     0.000,     0.000,   1,1, 0
  108,'1 ',1,   1,   1,    52.726,    17.138,     0.000,     0.000,     0.000,     0.000,   1,1, 0
  109,'1 ',1,   1,   1,    56.444,    10.902,     0.000,     0.000,     0.000,     0.000,   1,1, 0
  117,'1 ',1,   1,   1,     7.999,    14.999,     0.000,     0.000,     0.000,     0.000,   1,1, 0
  118,'1 ',1,   1,   1,     5.499,     9.999,     0.000,     0.000,     0.000,     0.000,   1,1, 0
  125,'1 ',1,   1,   1,    19.213,    21.474,     0.000,     0.000,     0.000,     0.000,   1,1, 0
  126,'1 ',1,   1,   1,    30.672,    33.602,     0.000,     0.000,     0.000,     0.000,   1,1, 0
  127,'1 ',1,   1,   1,    27.999,    65.999,     0.000,     0.000,     0.000,     0.000,   1,1, 0
  132,'1 ',1,   1,   1,   271.999,   -62.001,     0.000,     0.000,     0.000,     0.000,   1,1, 0
  133,'1 ',1,   1,   1,   266.500,   -24.800,     0.000,     0.000,     0.000,     0.000,   1,1, 0
  134,'1 ',1,   1,   1,    14.931,    12.880,     0.000,     0.000,     0.000,     0.000,   1,1, 0
  135,'1 ',1,   1,   1,     8.013,     6.525,     0.000,     0.000,     0.000,     0.000,   1,1, 0
  146,'1 ',1,   1,   1,    55.255,     6.955,     0.000,     0.000,     0.000,     0.000,   1,1, 0
  147,'1 ',1,   1,   1,    10.077,     8.400,     0.000,     0.000,     0.000,     0.000,   1,1, 0
  148,'1 ',1,   1,   1,    11.500,     6.860,     0.000,     0.000,     0.000,     0.000,   1,1, 0
  149,'1 ',1,   1,   1,     4.423,     1.347,     0.000,     0.000,     0.000,     0.000,   1,1, 0
  150,'1 ',1,   1,   1,    12.633,     6.828,     0.000,     0.000,     0.000,     0.000,   1,1, 0
  151,'1 ',1,   1,   1,    12.397,    10.045,     0.000,     0.000,     0.000,     0.000,   1,1, 0
  155,'1 ',1,   1,   1,    33.593,    44.976,     0.000,     0.000,     0.000,     0.000,   1,1, 0
  156,'1 ',1,   1,   1,    33.832,    45.070,     0.000,     0.000,     0.000,     0.000,   1,1, 0
  159,'1 ',1,   1,   1,     8.687,    17.490,     0.000,     0.000,     0.000,     0.000,   1,1, 0
  165,'1 ',1,   1,   1,     5.495,     9.587,     0.000,     0.000,     0.000,     0.000,   1,1, 0
  166,'1 ',1,   1,   1,    10.099,     4.886,     0.000,     0.000,     0.000,     0.000,   1,1, 0
  167,'1 ',1,   1,   1,    14.360,    13.623,     0.000,     0.000,     0.000,     0.000,   1,1, 0
  205,'1 ',1,   1,   1,   619.912,     0.000,     0.000,     0.000,     0.000,     0.000,   1,1, 0
  206,'1 ',1,   1,   1,   205.255,     0.000,     0.000,     0.000,     0.000,     0.000,   1,1, 0
  209,'1 ',1,   1,   1,     5.821,     1.500,     0.000,     0.000,     0.000,     0.000,   1,1, 0
  210,'1 ',1,   1,   1,     4.366,     0.500,     0.000,     0.000,     0.000,     0.000,   1,1, 0
  211,'1 ',1,   1,   1,     7.761,     2.000,     0.000,     0.000,     0.000,     0.000,   1,1, 0
  212,'1 ',1,   1,   1,     6.306,     5.600,     0.000,     0.000,     0.000,     0.000,   1,1, 0
  213,'1 ',1,   1,   1,     2.523,     0.600,     0.000,     0.000,     0.000,     0.000,   1,1, 0
  214,'1 ',1,   1,   1,     4.851,     1.300,     0.000,     0.000,     0.000,     0.000,   1,1, 0
  215,'1 ',1,   1,   1,    19.194,     8.000,     0.000,     0.000,     0.000,     0.000,   1,1, 0
  216,'1 ',1,   1,   1,    14.553,     1.500,     0.000,     0.000,     0.000,     0.000,   1,1, 0
  217,'1 ',1,   1,   1,     4.851,     1.000,     0.000,     0.000,     0.000,     0.000,   1,1, 0
  218,'1 ',1,   1,   1,     4.851,     1.000,     0.000,     0.000,     0.000,     0.000,   1,1, 0
  219,'1 ',1,   1,   1,     8.247,     1.600,     0.000,     0.000,     0.000,     0.000,   1,1, 0
  220,'1 ',1,   1,   1,     5.822,     1.500,     0.000,     0.000,     0.000,     0.000,   1,1, 0
  222,'1 ',1,   1,   1,     6.306,     1.500,     0.000,     0.000,     0.000,     0.000,   1,1, 0
  223,'1 ',1,   1,   1,    15.523,     2.600,     0.000,     0.000,     0.000,     0.000,   1,1, 0
  224,'1 ',1,   1,   1,     1.649,     0.400,     0.000,     0.000,     0.000,     0.000,   1,1, 0
  225,'1 ',1,   1,   1,     2.425,     0.200,     0.000,     0.000,     0.000,     0.000,   1,1, 0
  226,'1 ',1,   1,   1,     2.911,     0.500,     0.000,     0.000,     0.000,     0.000,   1,1, 0
  227,'1 ',1,   1,   1,    10.672,     0.499,     0.000,     0.000,     0.000,     0.000,   1,1, 0
  228,'1 ',1,   1,   1,     6.791,     2.000,     0.000,     0.000,     0.000,     0.000,   1,1, 0
  229,'1 ',1,   1,   1,     2.231,     1.050,     0.000,     0.000,     0.000,     0.000,   1,1, 0
  230,'1 ',1,   1,   1,     2.231,     1.050,     0.000,     0.000,     0.000,     0.000,   1,1, 0
  231,'1 ',1,   1,   1,    11.642,     6.000,     0.000,     0.000,     0.000,     0.000,   1,1, 0
  232,'1 ',1,   1,   1,     4.366,     1.000,     0.000,     0.000,     0.000,     0.000,   1,1, 0
  233,'1 ',1,   1,   1,     8.732,     1.000,     0.000,     0.000,     0.000,     0.000,   1,1, 0
  234,'1 ',1,   1,   1,    16.493,    14.000,     0.000,     0.000,     0.000,     0.000,   1,1, 0
  235,'1 ',1,   1,   1,     3.978,     0.500,     0.000,     0.000,     0.000,     0.000,   1,1, 0
  236,'1 ',1,   1,   1,     8.926,     3.640,     0.000,     0.000,     0.000,     0.000,   1,1, 0
  237,'1 ',1,   1,   1,     4.463,     0.300,     0.000,     0.000,     0.000,     0.000,   1,1, 0
  238,'1 ',1,   1,   1,     5.821,     1.000,     0.000,     0.000,     0.000,     0.000,   1,1, 0
  239,'1 ',1,   1,   1,     4.305,     1.175,     0.000,     0.000,     0.000,     0.000,   1,1, 0
  240,'1 ',1,   1,   1,     7.471,     1.000,     0.000,     0.000,     0.000,     0.000,   1,1, 0
  241,'1 ',1,   1,   1,     4.463,     1.670,     0.000,     0.000,     0.000,     0.000,   1,1, 0
  242,'1 ',1,   1,   1,     6.791,     0.700,     0.000,     0.000,     0.000,     0.000,   1,1, 0
  244,'1 ',1,   1,   1,     2.231,     1.400,     0.000,     0.000,     0.000,     0.000,   1,1, 0
  246,'1 ',1,   1,   1,     1.982,     5.000,     0.000,     0.000,     0.000,     0.000,   1,1, 0
  247,'1 ',1,   1,   1,     6.792,     1.500,     0.000,     0.000,     0.000,     0.000,   1,1, 0
  248,'1 ',1,   1,   1,     1.940,     0.500,     0.000,     0.000,     0.000,     0.000,   1,1, 0
  249,'1 ',1,   1,   1,     1.940,     0.500,     0.000,     0.000,     0.000,     0.000,   1,1, 0
  250,'1 ',1,   1,   1,     2.911,     0.500,     0.000,     0.000,     0.000,     0.000,   1,1, 0
  251,'1 ',1,   1,   1,     2.814,     0.500,     0.000,     0.000,     0.000,     0.000,   1,1, 0
  252,'1 ',1,   1,   1,    10.672,     7.000,     0.000,     0.000,     0.000,     0.000,   1,1, 0
  253,'1 ',1,   1,   1,    21.345,     5.000,     0.000,     0.000,     0.000,     0.000,   1,1, 0
  254,'1 ',1,   1,   1,     8.732,     2.000,     0.000,     0.000,     0.000,     0.000,   1,1, 0
  255,'1 ',1,   1,   1,    18.433,     1.000,     0.000,     0.000,     0.000,     0.000,   1,1, 0
  256,'1 ',1,   1,   1,     3.396,     0.500,     0.000,     0.000,     0.000,     0.000,   1,1, 0
  257,'1 ',1,   1,   1,     2.425,     0.350,     0.000,     0.000,     0.000,     0.000,   1,1, 0
  258,'1 ',1,   1,   1,     2.425,     0.350,     0.000,     0.000,     0.000,     0.000,   1,1, 0
  259,'1 ',1,   1,   1,     6.791,     2.540,     0.000,     0.000,     0.000,     0.000,   1,1, 0
  260,'1 ',1,   1,   1,     4.851,     1.000,     0.000,     0.000,     0.000,     0.000,   1,1, 0
  261,'1 ',1,   1,   1,     2.134,     0.500,     0.000,     0.000,     0.000,     0.000,   1,1, 0
  262,'1 ',1,   1,   1,     7.276,     1.600,     0.000,     0.000,     0.000,     0.000,   1,1, 0
  263,'1 ',1,   1,   1,     0.776,     0.500,     0.000,     0.000,     0.000,     0.000,   1,1, 0
  264,'1 ',1,   1,   1,    41.719,    37.000,     0.000,     0.000,     0.000,     0.000,   1,1, 0
  265,'1 ',1,   1,   1,    43.660,    40.000,     0.000,     0.000,     0.000,     0.000,   1,1, 0
  266,'1 ',1,   1,   1,     2.911,     1.000,     0.000,     0.000,     0.000,     0.000,   1,1, 0
  267,'1 ',1,   1,   1,     8.247,     0.700,     0.000,     0.000,     0.000,     0.000,   1,1, 0
  268,'1 ',1,   1,   1,     5.336,     1.100,     0.000,     0.000,     0.000,     0.000,   1,1, 0
  269,'1 ',1,   1,   1,     7.761,     1.500,     0.000,     0.000,     0.000,     0.000,   1,1, 0
  270,'1 ',1,   1,   1,     5.821,     1.500,     0.000,     0.000,     0.000,     0.000,   1,1, 0
  271,'1 ',1,   1,   1,    10.672,     2.750,     0.000,     0.000,     0.000,     0.000,   1,1, 0
  272,'1 ',1,   1,   1,     0.098,     0.000,     0.000,     0.000,     0.000,     0.000,   1,1, 0
  273,'1 ',1,   1,   1,     0.097,     0.030,     0.000,     0.000,     0.000,     0.000,   1,1, 0
  274,'1 ',1,   1,   1,     0.097,     0.030,     0.000,     0.000,     0.000,     0.000,   1,1, 0
  275,'1 ',1,   1,   1,     7.451,     3.940,     0.000,     0.000,     0.000,     0.000,   1,1, 0
  276,'1 ',1,   1,   1,     4.967,     2.630,     0.000,     0.000,     0.000,     0.000,   1,1, 0
  277,'1 ',1,   1,   1,     5.239,     1.200,     0.000,     0.000,     0.000,     0.000,   1,1, 0
  278,'1 ',1,   1,   1,     1.940,     0.000,     0.000,     0.000,     0.000,     0.000,   1,1, 0
  279,'1 ',1,   1,   1,     5.336,     0.000,     0.000,     0.000,     0.000,     0.000,   1,1, 0
  280,'1 ',1,   1,   1,    10.672,     3.000,     0.000,     0.000,     0.000,     0.000,   1,1, 0
  281,'1 ',1,   1,   1,     7.761,     1.000,     0.000,     0.000,     0.000,     0.000,   1,1, 0
  282,'1 ',1,   1,   1,    22.314,    21.000,     0.000,     0.000,     0.000,     0.000,   1,1, 0
  283,'1 ',1,   1,   1,    15.524,    13.000,     0.000,     0.000,     0.000,     0.000,   1,1, 0
  284,'1 ',1,   1,   1,     7.762,     3.170,     0.000,     0.000,     0.000,     0.000,   1,1, 0
  285,'1 ',1,   1,   1,    10.672,     1.600,     0.000,     0.000,     0.000,     0.000,   1,1, 0
  286,'1 ',1,   1,   1,     5.821,     0.500,     0.000,     0.000,     0.000,     0.000,   1,1, 0
  287,'1 ',1,   1,   1,     3.396,     0.000,     0.000,     0.000,     0.000,     0.000,   1,1, 0
  288,'1 ',1,   1,   1,     2.425,     0.500,     0.000,     0.000,     0.000,     0.000,   1,1, 0
  289,'1 ',1,   1,   1,     2.425,     0.600,     0.000,     0.000,     0.000,     0.000,   1,1, 0
  290,'1 ',1,   1,   1,    16.008,     6.000,     0.000,     0.000,     0.000,     0.000,   1,1, 0
  291,'1 ',1,   1,   1,     9.702,     1.000,     0.000,     0.000,     0.000,     0.000,   1,1, 0
  292,'1 ',1,   1,   1,     5.239,     1.960,     0.000,     0.000,     0.000,     0.000,   1,1, 0
  293,'1 ',1,   1,   1,     1.940,     1.300,     0.000,     0.000,     0.000,     0.000,   1,1, 0
  294,'1 ',1,   1,   1,     4.657,     0.800,     0.000,     0.000,     0.000,     0.000,   1,1, 0
  295,'1 ',1,   1,   1,     6.209,     0.900,     0.000,     0.000,     0.000,     0.000,   1,1, 0
  296,'1 ',1,   1,   1,     3.881,     2.000,     0.000,     0.000,     0.000,     0.000,   1,1, 0
  297,'1 ',1,   1,   1,     7.276,     2.970,     0.000,     0.000,     0.000,     0.000,   1,1, 0
  298,'1 ',1,   1,   1,     9.800,     3.670,     0.000,     0.000,     0.000,     0.000,   1,1, 0
  299,'1 ',1,   1,   1,     9.702,     3.500,     0.000,     0.000,     0.000,     0.000,   1,1, 0
  301,'1 ',1,   1,   1,     3.881,     0.500,     0.000,     0.000,     0.000,     0.000,   1,1, 0
  302,'1 ',1,   1,   1,     8.150,     3.330,     0.000,     0.000,     0.000,     0.000,   1,1, 0
  303,'1 ',1,   1,   1,     9.605,     3.590,     0.000,     0.000,     0.000,     0.000,   1,1, 0
  304,'1 ',1,   1,   1,    13.291,     4.970,     0.000,     0.000,     0.000,     0.000,   1,1, 0
  305,'1 ',1,   1,   1,    14.844,     5.550,     0.000,     0.000,     0.000,     0.000,   1,1, 0
  306,'1 ',1,   1,   1,    78.068,    52.190,     0.000,     0.000,     0.000,     0.000,   1,1, 0
  307,'1 ',1,   1,   1,    52.074,    20.970,     0.000,     0.000,     0.000,     0.000,   1,1, 0
  308,'1 ',1,   1,   1,    18.922,     9.470,     0.000,     0.000,     0.000,     0.000,   1,1, 0
  310,'1 ',1,   1,   1,    36.737,    19.740,     0.000,     0.000,     0.000,     0.000,   1,1, 0
  311,'1 ',1,   1,   1,    29.633,    16.420,     0.000,     0.000,     0.000,     0.000,   1,1, 0
  312,'1 ',1,   1,   1,     8.053,     0.800,     0.000,     0.000,     0.000,     0.000,   1,1, 0
  313,'1 ',1,   1,   1,     1.940,     0.000,     0.000,     0.000,     0.000,     0.000,   1,1, 0
  314,'1 ',1,   1,   1,     0.970,     0.501,     0.000,     0.000,     0.000,     0.000,   1,1, 0
  315,'1 ',1,   1,   1,     5.578,     0.750,     0.000,     0.000,     0.000,     0.000,   1,1, 0
  316,'1 ',1,   1,   1,     8.489,     1.250,     0.000,     0.000,     0.000,     0.000,   1,1, 0
  317,'1 ',1,   1,   1,    12.419,     3.000,     0.000,     0.000,     0.000,     0.000,   1,1, 0
  318,'1 ',1,   1,   1,     6.694,     2.500,     0.000,     0.000,     0.000,     0.000,   1,1, 0
  319,'1 ',1,   1,   1,    12.030,     4.500,     0.000,     0.000,     0.000,     0.000,   1,1, 0
  320,'1 ',1,   1,   1,    10.672,     2.500,     0.000,     0.000,     0.000,     0.000,   1,1, 0
  321,'1 ',1,   1,   1,    11.642,     4.750,     0.000,     0.000,     0.000,     0.000,   1,1, 0
  322,'1 ',1,   1,   1,    11.613,     4.740,     0.000,     0.000,     0.000,     0.000,   1,1, 0
  323,'1 ',1,   1,   1,     4.977,     2.030,     0.000,     0.000,     0.000,     0.000,   1,1, 0
  324,'1 ',1,   1,   1,     9.702,     2.500,     0.000,     0.000,     0.000,     0.000,   1,1, 0
  325,'1 ',1,   1,   1,    14.553,     3.000,     0.000,     0.000,     0.000,     0.000,   1,1, 0
  326,'1 ',1,   1,   1,     8.926,     3.340,     0.000,     0.000,     0.000,     0.000,   1,1, 0
  327,'1 ',1,   1,   1,     5.336,     1.000,     0.000,     0.000,     0.000,     0.000,   1,1, 0
  328,'1 ',1,   1,   1,     2.911,     0.600,     0.000,     0.000,     0.000,     0.000,   1,1, 0
  329,'1 ',1,   1,   1,    38.225,    14.300,     0.000,     0.000,     0.000,     0.000,   1,1, 0
  330,'1 ',1,   1,   1,    11.643,     1.000,     0.000,     0.000,     0.000,     0.000,   1,1, 0
  332,'1 ',1,   1,   1,     6.791,     2.000,     0.000,     0.000,     0.000,     0.000,   1,1, 0
  333,'1 ',1,   1,   1,     3.881,     0.200,     0.000,     0.000,     0.000,     0.000,   1,1, 0
  334,'1 ',1,   1,   1,     8.635,     3.230,     0.000,     0.000,     0.000,     0.000,   1,1, 0
  335,'1 ',1,   1,   1,     7.276,     1.900,     0.000,     0.000,     0.000,     0.000,   1,1, 0
  336,'1 ',1,   1,   1,    14.553,     4.500,     0.000,     0.000,     0.000,     0.000,   1,1, 0
  337,'1 ',1,   1,   1,    14.553,     4.500,     0.000,     0.000,     0.000,     0.000,   1,1, 0
  338,'1 ',1,   1,   1,     3.396,     0.000,     0.000,     0.000,     0.000,     0.000,   1,1, 0
  341,'1 ',1,   1,   1,    11.642,     3.800,     0.000,     0.000,     0.000,     0.000,   1,1, 0
  342,'1 ',1,   1,   1,     9.703,     2.100,     0.000,     0.000,     0.000,     0.000,   1,1, 0
  344,'1 ',1,   1,   1,     3.396,     0.500,     0.000,     0.000,     0.000,     0.000,   1,1, 0
  345,'1 ',1,   1,   1,     5.821,     1.500,     0.000,     0.000,     0.000,     0.000,   1,1, 0
  346,'1 ',1,   1,   1,     4.754,     0.600,     0.000,     0.000,     0.000,     0.000,   1,1, 0
  347,'1 ',1,   1,   1,    11.642,     4.360,     0.000,     0.000,     0.000,     0.000,   1,1, 0
  348,'1 ',1,   1,   1,     6.500,     1.680,     0.000,     0.000,     0.000,     0.000,   1,1, 0
  350,'1 ',1,   1,   1,     3.396,     1.000,     0.000,     0.000,     0.000,     0.000,   1,1, 0
  351,'1 ',1,   1,   1,     1.941,     0.600,     0.000,     0.000,     0.000,     0.000,   1,1, 0
  355,'1 ',1,   1,   1,     7.761,     2.300,     0.000,     0.000,     0.000,     0.000,   1,1, 0
  356,'1 ',1,   1,   1,     7.762,     1.800,     0.000,     0.000,     0.000,     0.000,   1,1, 0
  357,'1 ',1,   1,   1,     7.373,     0.600,     0.000,     0.000,     0.000,     0.000,   1,1, 0
  360,'1 ',1,   1,   1,     6.307,     1.300,     0.000,     0.000,     0.000,     0.000,   1,1, 0
  361,'1 ',1,   1,   1,     5.821,     1.000,     0.000,     0.000,     0.000,     0.000,   1,1, 0
  362,'1 ',1,   1,   1,    38.808,    15.000,     0.000,     0.000,     0.000,     0.000,   1,1, 0
  363,'1 ',1,   1,   1,    38.808,    16.000,     0.000,     0.000,     0.000,     0.000,   1,1, 0
  364,'1 ',1,   1,   1,    42.689,    12.000,     0.000,     0.000,     0.000,     0.000,   1,1, 0
  365,'1 ',1,   1,   1,    77.616,    22.000,     0.000,     0.000,     0.000,     0.000,   1,1, 0
  367,'1 ',1,   1,   1,     4.172,     0.500,     0.000,     0.000,     0.000,     0.000,   1,1, 0
  368,'1 ',1,   1,   1,    13.582,     0.700,     0.000,     0.000,     0.000,     0.000,   1,1, 0
  369,'1 ',1,   1,   1,     3.396,     1.000,     0.000,     0.000,     0.000,     0.000,   1,1, 0
  371,'1 ',1,   1,   1,    16.008,     7.000,     0.000,     0.000,     0.000,     0.000,   1,1, 0
  372,'1 ',1,   1,   1,     2.911,     0.500,     0.000,     0.000,     0.000,     0.000,   1,1, 0
  373,'1 ',1,   1,   1,     5.821,     1.500,     0.000,     0.000,     0.000,     0.000,   1,1, 0
  374,'1 ',1,   1,   1,     6.306,     1.500,     0.000,     0.000,     0.000,     0.000,   1,1, 0
  375,'1 ',1,   1,   1,     5.433,     0.500,     0.000,     0.000,     0.000,     0.000,   1,1, 0
...
0 / END OF LOAD DATA, BEGIN FIXED SHUNT DATA
0 / END OF FIXED SHUNT DATA, BEGIN GENERATOR DATA
   17,'1 ',   140.000,    54.309,   120.000,   -10.000,1.09088,    0,   100.000,   0.00000,   0.23730,   0.00000,   0.00000,1.00000,1,  100.0,   200.000,   140.000,   1,1.0000,   0,1.0000,   0,1.0000,   0,1.0000,0, 1.0000
   18,'1 ',   140.000,    32.540,   120.000,   -10.000,1.09091,    0,   100.000,   0.00000,   0.27170,   0.00000,   0.00000,1.00000,1,  100.0,   200.000,   140.000,   1,1.0000,   0,1.0000,   0,1.0000,   0,1.0000,0, 1.0000
   26,'1 ',     0.000,     0.000,   220.000,   -10.000,1.09091,    0,   100.000,   0.00000,   0.24940,   0.00000,   0.00000,1.00000,0,  100.0,   370.000,   290.000,   1,1.0000,   0,1.0000,   0,1.0000,   0,1.0000,0, 1.0000
   26,'2 ',   360.000,   135.909,   220.000,   -10.000,1.09091,    0,   100.000,   0.00000,   0.18410,   0.00000,   0.00000,1.00000,1,  100.0,   360.000,   290.000,   1,1.0000,   0,1.0000,   0,1.0000,   0,1.0000,0, 1.0000
   27,'1 ',   360.000,    62.782,   220.000,   -10.000,1.09091,    0,   100.000,   0.00000,   0.16690,   0.00000,   0.00000,1.00000,1,  100.0,   360.000,   290.000,   1,1.0000,   0,1.0000,   0,1.0000,   0,1.0000,0, 1.0000
   27,'2 ',   370.000,    62.782,   220.000,   -10.000,1.09091,    0,   100.000,   0.00000,   0.19300,   0.00000,   0.00000,1.00000,1,  100.0,   370.000,   290.000,   1,1.0000,   0,1.0000,   0,1.0000,   0,1.0000,0, 1.0000
   27,'3 ',   370.000,    62.782,   220.000,   -10.000,1.09091,    0,   100.000,   0.00000,   0.24260,   0.00000,   0.00000,1.00000,1,  100.0,   370.000,   290.000,   1,1.0000,   0,1.0000,   0,1.0000,   0,1.0000,0, 1.0000
   28,'1 ',     0.000,     0.000,   220.000,   -10.000,1.03250,    0,   100.000,   0.00000,   0.25540,   0.00000,   0.00000,1.00000,0,  100.0,   370.000,   290.000,   1,1.0000,   0,1.0000,   0,1.0000,   0,1.0000,0, 1.0000
   28,'2 ',   375.785,    31.945,   220.000,   -10.000,1.03250,    0,   100.000,   0.00000,   0.15380,   0.00000,   0.00000,1.00000,1,  100.0,   370.000,   290.000,   1,1.0000,   0,1.0000,   0,1.0000,   0,1.0000,0, 1.0000
   28,'3 ',   375.785,    31.945,   220.000,   -10.000,1.03250,    0,   100.000,   0.00000,   0.25350,   0.00000,   0.00000,1.00000,1,  100.0,   370.000,   290.000,   1,1.0000,   0,1.0000,   0,1.0000,   0,1.0000,0, 1.0000
   29,'1 ',   370.000,   -10.000,   220.000,   -10.000,1.03250,    0,   100.000,   0.00000,   0.19780,   0.00000,   0.00000,1.00000,1,  100.0,   370.000,   290.000,   1,1.0000,   0,1.0000,   0,1.0000,   0,1.0000,0, 1.0000
   29,'2 ',   370.000,   -10.000,   220.000,   -10.000,1.03250,    0,   100.000,   0.00000,   0.24660,   0.00000,   0.00000,1.00000,1,  100.0,   370.000,   290.000,   1,1.0000,   0,1.0000,   0,1.0000,   0,1.0000,0, 1.0000
   29,'3 ',   370.000,   -10.000,   220.000,   -10.000,1.03250,    0,   100.000,   0.00000,   0.21920,   0.00000,   0.00000,1.00000,1,  100.0,   370.000,   290.000,   1,1.0000,   0,1.0000,   0,1.0000,   0,1.0000,0, 1.0000
   43,'1 ',   135.000,   -20.000,   120.000,   -20.000,1.09091,    0,   100.000,   0.00000,   0.22880,   0.00000,   0.00000,1.00000,1,  100.0,   215.000,   135.000,   1,1.0000,   0,1.0000,   0,1.0000,   0,1.0000,0, 1.0000
   43,'2 ',     0.000,     0.000,   120.000,   -20.000,1.09091,    0,   100.000,   0.00000,   0.25210,   0.00000,   0.00000,1.00000,0,  100.0,   247.800,   135.000,   1,1.0000,   0,1.0000,   0,1.0000,   0,1.0000,0, 1.0000
   43,'3 ',     0.000,     0.000,   120.000,   -20.000,1.09091,    0,   100.000,   0.00000,   0.35880,   0.00000,   0.00000,1.00000,0,  100.0,   247.800,   135.000,   1,1.0000,   0,1.0000,   0,1.0000,   0,1.0000,0, 1.0000
   44,'1 ',   135.000,   -17.584,   120.000,   -20.000,1.09096,    0,   100.000,   0.00000,   0.26870,   0.00000,   0.00000,1.00000,1,  100.0,   225.000,   135.000,   1,1.0000,   0,1.0000,   0,1.0000,   0,1.0000,0, 1.0000
   44,'2 ',   135.000,   -17.584,   120.000,   -20.000,1.09096,    0,   100.000,   0.00000,   0.20000,   0.00000,   0.00000,1.00000,1,  100.0,   225.000,   135.000,   1,1.0000,   0,1.0000,   0,1.0000,   0,1.0000,0, 1.0000
   44,'3 ',     0.000,     0.000,   120.000,   -20.000,1.09096,    0,   100.000,   0.00000,   0.15890,   0.00000,   0.00000,1.00000,0,  100.0,   225.000,   135.000,   1,1.0000,   0,1.0000,   0,1.0000,   0,1.0000,0, 1.0000
   45,'1 ',     0.000,     0.000,   350.000,   -40.000,1.03250,    0,   100.000,   0.00000,   0.22930,   0.00000,   0.00000,1.00000,0,  100.0,   500.000,   350.000,   1,1.0000,   0,1.0000,   0,1.0000,   0,1.0000,0, 1.0000
   45,'2 ',   350.000,    78.498,   350.000,   -40.000,1.03250,    0,   100.000,   0.00000,   0.29960,   0.00000,   0.00000,1.00000,1,  100.0,   500.000,   350.000,   1,1.0000,   0,1.0000,   0,1.0000,   0,1.0000,0, 1.0000
   55,'1 ',   130.000,   -20.000,   120.000,   -20.000,1.09121,    0,   100.000,   0.00000,   0.25520,   0.00000,   0.00000,1.00000,1,  100.0,   225.000,   130.000,   1,1.0000,   0,1.0000,   0,1.0000,   0,1.0000,0, 1.0000
   56,'1 ',   130.000,   -20.000,   120.000,   -20.000,1.09115,    0,   100.000,   0.00000,   0.17450,   0.00000,   0.00000,1.00000,1,  100.0,   225.000,   130.000,   1,1.0000,   0,1.0000,   0,1.0000,   0,1.0000,0, 1.0000
   56,'2 ',     0.000,     0.000,   120.000,   -20.000,1.09115,    0,   100.000,   0.00000,   0.28620,   0.00000,   0.00000,1.00000,0,  100.0,   225.000,   130.000,   1,1.0000,   0,1.0000,   0,1.0000,   0,1.0000,0, 1.0000
   57,'1 ',   130.000,   -20.000,   120.000,   -20.000,1.03336,    0,   100.000,   0.00000,   0.14610,   0.00000,   0.00000,1.00000,1,  100.0,   225.000,   130.000,   1,1.0000,   0,1.0000,   0,1.0000,   0,1.0000,0, 1.0000
   58,'1 ',     0.000,     0.000,   120.000,   -20.000,1.03336,    0,   100.000,   0.00000,   0.13450,   0.00000,   0.00000,1.00000,0,  100.0,   225.000,   130.000,   1,1.0000,   0,1.0000,   0,1.0000,   0,1.0000,0, 1.0000
   58,'2 ',   130.000,   -20.000,   120.000,   -20.000,1.03336,    0,   100.000,   0.00000,   0.14330,   0.00000,   0.00000,1.00000,1,  100.0,   225.000,   130.000,   1,1.0000,   0,1.0000,   0,1.0000,   0,1.0000,0, 1.0000
   58,'3 ',     0.000,     0.000,   120.000,   -20.000,1.03336,    0,   100.000,   0.00000,   0.37280,   0.00000,   0.00000,1.00000,0,  100.0,   225.000,   130.000,   1,1.0000,   0,1.0000,   0,1.0000,   0,1.0000,0, 1.0000
   59,'1 ',    63.000,     0.000,    28.800,     0.000,1.08415,    0,   100.000,   0.00000,   0.18420,   0.00000,   0.00000,1.00000,1,  100.0,    63.000,    63.000,   1,1.0000,   0,1.0000,   0,1.0000,   0,1.0000,0, 1.0000
   78,'1 ',   140.000,    45.576,   105.000,     5.000,1.09091,    0,   100.000,   0.00000,   0.14200,   0.00000,   0.00000,1.00000,1,  100.0,   225.000,   140.000,   1,1.0000,   0,1.0000,   0,1.0000,   0,1.0000,0, 1.0000
   78,'2 ',   140.000,    45.576,   105.000,     5.000,1.09091,    0,   100.000,   0.00000,   0.25290,   0.00000,   0.00000,1.00000,1,  100.0,   225.000,   140.000,   1,1.0000,   0,1.0000,   0,1.0000,   0,1.0000,0, 1.0000
   79,'1 ',     0.000,     0.000,   105.000,     5.000,1.09034,    0,   100.000,   0.00000,   0.39120,   0.00000,   0.00000,1.00000,0,  100.0,   220.000,   140.000,   1,1.0000,   0,1.0000,   0,1.0000,   0,1.0000,0, 1.0000
   79,'2 ',     0.000,     0.000,   105.000,     5.000,1.09034,    0,   100.000,   0.00000,   0.22550,   0.00000,   0.00000,1.00000,0,  100.0,   225.000,   140.000,   1,1.0000,   0,1.0000,   0,1.0000,   0,1.0000,0, 1.0000
   79,'3 ',   140.000,    22.420,   105.000,     5.000,1.09034,    0,   100.000,   0.00000,   0.16180,   0.00000,   0.00000,1.00000,1,  100.0,   225.000,   140.000,   1,1.0000,   0,1.0000,   0,1.0000,   0,1.0000,0, 1.0000
   82,'1 ',   380.000,   -37.000,   192.000,   -37.000,1.02993,    0,   100.000,   0.00000,   0.25610,   0.00000,   0.00000,1.00000,1,  100.0,   380.000,   220.000,   1,1.0000,   0,1.0000,   0,1.0000,   0,1.0000,0, 1.0000
   82,'2 ',   370.000,   -27.700,   174.000,   -27.700,1.02993,    0,   100.000,   0.00000,   0.15580,   0.00000,   0.00000,1.00000,1,  100.0,   370.000,   220.000,   1,1.0000,   0,1.0000,   0,1.0000,   0,1.0000,0, 1.0000
  104,'1 ',   190.653,    53.708,   113.000,   -48.000,1.09091,    0,   100.000,   0.00000,   0.18940,   0.00000,   0.00000,1.00000,1,  100.0,   225.000,   120.000,   1,1.0000,   0,1.0000,   0,1.0000,   0,1.0000,0, 1.0000
  105,'1 ',     0.000,     0.000,   113.000,   -48.000,1.09091,    0,   100.000,   0.00000,   0.18830,   0.00000,   0.00000,1.00000,0,  100.0,   225.000,   134.000,   1,1.0000,   0,1.0000,   0,1.0000,   0,1.0000,0, 1.0000
  106,'1 ',    79.000,    22.134,    90.000,    -5.000,1.09091,    0,   100.000,   0.00000,   0.30020,   0.00000,   0.00000,1.00000,1,  100.0,   120.000,    79.000,   1,1.0000,   0,1.0000,   0,1.0000,   0,1.0000,0, 1.0000
  107,'1 ',    79.000,    75.224,    90.000,    -5.000,1.09091,    0,   100.000,   0.00000,   0.30070,   0.00000,   0.00000,1.00000,1,  100.0,   120.000,    79.000,   1,1.0000,   0,1.0000,   0,1.0000,   0,1.0000,0, 1.0000
  116,'1 ',     0.000,     0.000,    90.000,   -20.000,1.09042,    0,   100.000,   0.00000,   0.14280,   0.00000,   0.00000,1.00000,0,  100.0,   120.000,    90.000,   1,1.0000,   0,1.0000,   0,1.0000,   0,1.0000,0, 1.0000
  117,'1 ',    70.000,    16.697,    90.000,   -20.000,1.09046,    0,   100.000,   0.00000,   0.21170,   0.00000,   0.00000,1.00000,1,  100.0,   120.000,    70.000,   1,1.0000,   0,1.0000,   0,1.0000,   0,1.0000,0, 1.0000
  118,'1 ',    80.000,    33.000,    68.000,    33.000,1.08900,    0,   100.000,   0.00000,   0.35830,   0.00000,   0.00000,1.00000,1,  100.0,   110.000,    80.000,   1,1.0000,   0,1.0000,   0,1.0000,   0,1.0000,0, 1.0000
  125,'1 ',   215.000,    37.591,   113.000,   -11.000,1.09091,    0,   100.000,   0.00000,   0.19430,   0.00000,   0.00000,1.00000,1,  100.0,   215.000,   160.000,   1,1.0000,   0,1.0000,   0,1.0000,   0,1.0000,0, 1.0000
  126,'1 ',   225.000,    56.104,    84.000,    -5.000,1.09082,    0,   100.000,   0.00000,   0.28070,   0.00000,   0.00000,1.00000,1,  100.0,   225.000,   140.000,   1,1.0000,   0,1.0000,   0,1.0000,   0,1.0000,0, 1.0000
  126,'2 ',     0.000,     0.000,    80.000,    -5.000,1.09082,    0,   100.000,   0.00000,   0.30180,   0.00000,   0.00000,1.00000,0,  100.0,   215.000,   160.000,   1,1.0000,   0,1.0000,   0,1.0000,   0,1.0000,0, 1.0000
  127,'1 ',   225.000,    15.577,    79.000,    -7.500,1.02869,    0,   100.000,   0.00000,   0.23550,   0.00000,   0.00000,1.00000,1,  100.0,   225.000,   140.000,   1,1.0000,   0,1.0000,   0,1.0000,   0,1.0000,0, 1.0000
  127,'2 ',   220.000,    15.577,   100.000,   -10.000,1.02869,    0,   100.000,   0.00000,   0.20420,   0.00000,   0.00000,1.00000,1,  100.0,   220.000,   160.000,   1,1.0000,   0,1.0000,   0,1.0000,   0,1.0000,0, 1.0000
  132,'1 ',     0.000,     0.000,     0.000,     0.000,1.09091,    0,   100.000,   0.00000,   1.00000,   0.00000,   0.00000,1.00000,0,  100.0,   135.000,     0.000,   1,1.0000,   0,1.0000,   0,1.0000,   0,1.0000,0, 1.0000
  132,'2 ',     0.000,     0.000,     0.000,     0.000,1.09091,    0,   100.000,   0.00000,   1.00000,   0.00000,   0.00000,1.00000,0,  100.0,   135.000,     0.000,   1,1.0000,   0,1.0000,   0,1.0000,   0,1.0000,0, 1.0000
  133,'1 ',     0.000,     0.000,     0.000,     0.000,1.09091,    0,   100.000,   0.00000,   1.00000,   0.00000,   0.00000,1.00000,0,  100.0,   135.000,     0.000,   1,1.0000,   0,1.0000,   0,1.0000,   0,1.0000,0, 1.0000
  133,'2 ',     0.000,     0.000,     0.000,     0.000,1.09091,    0,   100.000,   0.00000,   1.00000,   0.00000,   0.00000,1.00000,0,  100.0,   135.000,     0.000,   1,1.0000,   0,1.0000,   0,1.0000,   0,1.0000,0, 1.0000
  134,'1 ',     0.000,     0.000,    90.000,     0.000,1.08882,    0,   100.000,   0.00000,   0.15500,   0.00000,   0.00000,1.00000,0,  100.0,   120.000,   102.000,   1,1.0000,   0,1.0000,   0,1.0000,   0,1.0000,0, 1.0000
  134,'2 ',   120.000,    90.000,    90.000,     0.000,1.08882,    0,   100.000,   0.00000,   0.20560,   0.00000,   0.00000,1.00000,1,  100.0,   120.000,   100.000,   1,1.0000,   0,1.0000,   0,1.0000,   0,1.0000,0, 1.0000
  135,'1 ',     0.000,     0.000,    90.000,     0.000,1.08867,    0,   100.000,   0.00000,   0.27420,   0.00000,   0.00000,1.00000,0,  100.0,   120.000,   102.000,   1,1.0000,   0,1.0000,   0,1.0000,   0,1.0000,0, 1.0000
  146,'1 ',    50.000,     2.661,    12.000,     0.000,1.09012,    0,   100.000,   0.00000,   0.22750,   0.00000,   0.00000,1.00000,1,  100.0,    50.000,    30.000,   1,1.0000,   0,1.0000,   0,1.0000,   0,1.0000,0, 1.0000
  146,'2 ',    34.266,     2.661,    12.000,     0.000,1.09012,    0,   100.000,   0.00000,   0.17160,   0.00000,   0.00000,1.00000,1,  100.0,    50.000,    30.000,   1,1.0000,   0,1.0000,   0,1.0000,   0,1.0000,0, 1.0000
  147,'1 ',     0.000,     0.000,    90.000,     0.000,1.09011,    0,   100.000,   0.00000,   0.24200,   0.00000,   0.00000,1.00000,0,  100.0,   120.000,    90.000,   1,1.0000,   0,1.0000,   0,1.0000,   0,1.0000,0, 1.0000
  148,'1 ',    90.000,     0.000,   120.000,     0.000,1.09091,    0,   100.000,   0.00000,   0.25250,   0.00000,   0.00000,1.00000,1,  100.0,   222.000,    90.000,   1,1.0000,   0,1.0000,   0,1.0000,   0,1.0000,0, 1.0000
  148,'2 ',     0.000,     0.000,   120.000,     0.000,1.09091,    0,   100.000,   0.00000,   0.22100,   0.00000,   0.00000,1.00000,0,  100.0,   205.000,   135.000,   1,1.0000,   0,1.0000,   0,1.0000,   0,1.0000,0, 1.0000
  148,'3 ',     0.000,     0.000,   120.000,     0.000,1.09091,    0,   100.000,   0.00000,   0.15450,   0.00000,   0.00000,1.00000,0,  100.0,   205.000,   135.000,   1,1.0000,   0,1.0000,   0,1.0000,   0,1.0000,0, 1.0000
  148,'4 ',    90.000,     0.000,   120.000,     0.000,1.09091,    0,   100.000,   0.00000,   0.28940,   0.00000,   0.00000,1.00000,1,  100.0,   222.000,    90.000,   1,1.0000,   0,1.0000,   0,1.0000,   0,1.0000,0, 1.0000
  150,'1 ',    90.000,     5.891,   120.000,     0.000,1.03246,    0,   100.000,   0.00000,   0.21270,   0.00000,   0.00000,1.00000,1,  100.0,   222.000,    90.000,   1,1.0000,   0,1.0000,   0,1.0000,   0,1.0000,0, 1.0000
  151,'1 ',    90.000,     5.891,   120.000,     0.000,1.03246,    0,   100.000,   0.00000,   0.21070,   0.00000,   0.00000,1.00000,1,  100.0,   222.000,    90.000,   1,1.0000,   0,1.0000,   0,1.0000,   0,1.0000,0, 1.0000
  151,'2 ',     0.000,     0.000,   120.000,     0.000,1.03246,    0,   100.000,   0.00000,   0.23430,   0.00000,   0.00000,1.00000,0,  100.0,   222.000,    90.000,   1,1.0000,   0,1.0000,   0,1.0000,   0,1.0000,0, 1.0000
  155,'1 ',    94.000,    23.790,   120.000,     0.000,1.09091,    0,   100.000,   0.00000,   0.30740,   0.00000,   0.00000,1.00000,1,  100.0,   235.000,    94.000,   1,1.0000,   0,1.0000,   0,1.0000,   0,1.0000,0, 1.0000
  155,'2 ',    94.000,    23.790,   120.000,     0.000,1.09091,    0,   100.000,   0.00000,   0.18220,   0.00000,   0.00000,1.00000,1,  100.0,   235.000,    94.000,   1,1.0000,   0,1.0000,   0,1.0000,   0,1.0000,0, 1.0000
  155,'3 ',     0.000,     0.000,   120.000,     0.000,1.09091,    0,   100.000,   0.00000,   0.31280,   0.00000,   0.00000,1.00000,0,  100.0,   205.000,   130.000,   1,1.0000,   0,1.0000,   0,1.0000,   0,1.0000,0, 1.0000
  155,'4 ',   104.000,    23.790,   120.000,     0.000,1.09091,    0,   100.000,   0.00000,   0.23140,   0.00000,   0.00000,1.00000,1,  100.0,   261.000,   104.000,   1,1.0000,   0,1.0000,   0,1.0000,   0,1.0000,0, 1.0000
  156,'1 ',     0.000,     0.000,   120.000,     0.000,1.09091,    0,   100.000,   0.00000,   0.28500,   0.00000,   0.00000,1.00000,0,  100.0,   205.000,   130.000,   1,1.0000,   0,1.0000,   0,1.0000,   0,1.0000,0, 1.0000
  156,'2 ',   130.000,    20.678,   120.000,     0.000,1.09091,    0,   100.000,   0.00000,   0.13710,   0.00000,   0.00000,1.00000,1,  100.0,   205.000,   130.000,   1,1.0000,   0,1.0000,   0,1.0000,   0,1.0000,0, 1.0000
  156,'3 ',   120.000,    20.678,   120.000,     0.000,1.09091,    0,   100.000,   0.00000,   0.14370,   0.00000,   0.00000,1.00000,1,  100.0,   206.000,   120.000,   1,1.0000,   0,1.0000,   0,1.0000,   0,1.0000,0, 1.0000
  156,'4 ',   120.000,    20.678,   120.000,     0.000,1.09091,    0,   100.000,   0.00000,   0.12730,   0.00000,   0.00000,1.00000,1,  100.0,   206.000,   120.000,   1,1.0000,   0,1.0000,   0,1.0000,   0,1.0000,0, 1.0000
  159,'1 ',   120.000,     0.000,   120.000,     0.000,1.00535,    0,   100.000,   0.00000,   0.22090,   0.00000,   0.00000,1.00000,1,  100.0,   206.000,   120.000,   1,1.0000,   0,1.0000,   0,1.0000,   0,1.0000,0, 1.0000
  165,'1 ',   200.000,    49.754,   120.000,     0.000,1.09084,    0,   100.000,   0.00000,   0.16060,   0.00000,   0.00000,1.00000,1,  100.0,   200.000,   150.000,   1,1.0000,   0,1.0000,   0,1.0000,   0,1.0000,0, 1.0000
  165,'2 ',     0.000,     0.000,   120.000,     0.000,1.09084,    0,   100.000,   0.00000,   0.20000,   0.00000,   0.00000,1.00000,0,  100.0,   200.000,   150.000,   1,1.0000,   0,1.0000,   0,1.0000,   0,1.0000,0, 1.0000
  165,'3 ',     0.000,     0.000,   120.000,     0.000,1.09084,    0,   100.000,   0.00000,   0.30570,   0.00000,   0.00000,1.00000,0,  100.0,   200.000,   150.000,   1,1.0000,   0,1.0000,   0,1.0000,   0,1.0000,0, 1.0000
  166,'1 ',   200.000,   120.000,   120.000,     0.000,1.09091,    0,   100.000,   0.00000,   0.26060,   0.00000,   0.00000,1.00000,1,  100.0,   200.000,   150.000,   1,1.0000,   0,1.0000,   0,1.0000,   0,1.0000,0, 1.0000
  205,'1 ',     0.000,    11.452,    80.000,   -30.000,1.03250,    0,   100.000,   0.00000,   1.00000,   0.00000,   0.00000,1.00000,1,  100.0,   179.000,     0.000,   1,1.0000,   0,1.0000,   0,1.0000,   0,1.0000,0, 1.0000
  205,'2 ',     0.000,    11.452,    80.000,   -30.000,1.03250,    0,   100.000,   0.00000,   1.00000,   0.00000,   0.00000,1.00000,1,  100.0,   179.000,     0.000,   1,1.0000,   0,1.0000,   0,1.0000,   0,1.0000,0, 1.0000
  205,'3 ',     0.000,    11.452,    80.000,   -30.000,1.03250,    0,   100.000,   0.00000,   1.00000,   0.00000,   0.00000,1.00000,1,  100.0,   179.000,     0.000,   1,1.0000,   0,1.0000,   0,1.0000,   0,1.0000,0, 1.0000
  206,'1 ',     0.000,    34.356,    80.000,   -30.000,1.03250,    0,   100.000,   0.00000,   1.00000,   0.00000,   0.00000,1.00000,1,  100.0,   179.000,     0.000,   1,1.0000,   0,1.0000,   0,1.0000,   0,1.0000,0, 1.0000
  215,'1 ',    37.079,     0.000,    20.000,     0.000,1.08646,    0,   100.000,   0.00000,   0.19960,   0.00000,   0.00000,1.00000,1,  100.0,    37.079,    37.079,   1,1.0000,   0,1.0000,   0,1.0000,   0,1.0000,0, 1.0000
...